3
0.0
C               0.00000000           0.00000000           0.00000000
O               1.15908179           0.00000000           0.20000000
O              -1.15908179           0.00000000           0.200000000
3
0.0
C               0.100000000           0.10000000           0.10000000
O               1.25908179           0.00000000           0.00000000
O              -1.08           0.00000000           0.00000000
3
0.0
C               0.00000000           0.00000000           0.00000000
O               1.1          0.00000000           0.00000000
O              -1.3           0.00000000           0.00000000
3
0.0
C               0.100000000           0.00000000           0.00000000
O               1.15908179           0.00000000           0.00000000
O              -1.15908179           0.00000000           0.00000000
3
0.0
C               0.00000000           0.100000000           0.00000000
O               1.15908179           0.00000000           0.00000000
O              -1.15908179           0.00000000           0.00000000
3
0.0
C             0.00000000             0.00000000           0.00000000
O             0.00000000             1.15908179           0.00000000
O             0.00000000            -1.2908179           0.00000000
3
0.0
C               0.00000000           0.00000000           0.00000000
O               1.2           0.00000000           0.00000000
O              -1.15908179           0.00000000           0.00000000
